
  EPA STORM WATER MANAGEMENT MODEL - VERSION 5.1 (Build 5.1.015)
  --------------------------------------------------------------

  
  *********************************************************
  NOTE: The summary statistics displayed in this report are
  based on results found at every computational time step,  
  not just on results from each reporting time step.
  *********************************************************
  
  ****************
  Analysis Options
  ****************
  Flow Units ............... CFS
  Process Models:
    Rainfall/Runoff ........ YES
    RDII ................... NO
    Snowmelt ............... NO
    Groundwater ............ NO
    Flow Routing ........... NO
    Water Quality .......... NO
  Infiltration Method ...... GREEN_AMPT
  Surcharge Method ......... EXTRAN
  Starting Date ............ 01/01/2007 00:00:00
  Ending Date .............. 01/02/2008 00:00:00
  Antecedent Dry Days ...... 0.0
  Report Time Step ......... 00:01:00
  Wet Time Step ............ 00:00:15
  Dry Time Step ............ 00:01:00
  
  
  **************************        Volume         Depth
  Runoff Quantity Continuity     acre-feet        inches
  **************************     ---------       -------
  Initial LID Storage ......         0.005         0.044
  Total Precipitation ......        10.562       102.547
  Evaporation Loss .........         0.283         2.750
  Infiltration Loss ........         0.957         9.293
  Surface Runoff ...........         8.725        84.709
  LID Drainage .............         0.582         5.652
  Final Storage ............         0.019         0.188
  Continuity Error (%) .....        -0.000
  
  
  **************************        Volume        Volume
  Flow Routing Continuity        acre-feet      10^6 gal
  **************************     ---------     ---------
  Dry Weather Inflow .......         0.000         0.000
  Wet Weather Inflow .......         9.307         3.033
  Groundwater Inflow .......         0.000         0.000
  RDII Inflow ..............         0.000         0.000
  External Inflow ..........         0.000         0.000
  External Outflow .........         9.307         3.033
  Flooding Loss ............         0.000         0.000
  Evaporation Loss .........         0.000         0.000
  Exfiltration Loss ........         0.000         0.000
  Initial Stored Volume ....         0.000         0.000
  Final Stored Volume ......         0.000         0.000
  Continuity Error (%) .....         0.000
  
  
  ***************************
  Subcatchment Runoff Summary
  ***************************
  
  ------------------------------------------------------------------------------------------------------------------------------
                            Total      Total      Total      Total     Imperv       Perv      Total       Total     Peak  Runoff
                           Precip      Runon       Evap      Infil     Runoff     Runoff     Runoff      Runoff   Runoff   Coeff
  Subcatchment                 in         in         in         in         in         in         in    10^6 gal      CFS
  ------------------------------------------------------------------------------------------------------------------------------
  S1                       102.55       0.00       2.75       9.29      98.50       0.00      90.36        3.03     2.43   0.881
  

  ***********************
  LID Performance Summary
  ***********************

  --------------------------------------------------------------------------------------------------------------------
                                         Total      Evap     Infil   Surface    Drain    Initial     Final  Continuity
                                        Inflow      Loss      Loss   Outflow   Outflow   Storage   Storage       Error
  Subcatchment      LID Control             in        in        in        in        in        in        in           %
  --------------------------------------------------------------------------------------------------------------------
  S1                BioretentionCell   4385.50     46.30    404.05   3683.14    245.76      1.92      8.18       -0.00
  S1                PP                    0.00      0.00      0.00      0.00      0.00      0.40      0.40        0.00
  S1                GreenRoof             0.00      0.00      0.00      0.00      0.00      0.40      0.40        0.00

  Analysis begun on:  Sat Sep 12 15:37:41 2020
  Analysis ended on:  Sat Sep 12 15:37:44 2020
  Total elapsed time: 00:00:03